
Note: No compatibility mode selected!


Circuit: * spice netlist for clock mesh net: clk_mesh

Doing analysis at TEMP = 27.000000 and TNOM = 27.000000

Using SPARSE 1.3 as Direct Linear Solver

Initial Transient Solution
--------------------------

Node                                   Voltage
----                                   -------
vdd                                        0.7
clknet_leaf_0_clk                            0
clknet_leaf_10_clk                           0
clknet_leaf_11_clk                           0
clknet_leaf_12_clk                           0
clknet_leaf_13_clk                           0
clknet_leaf_14_clk                           0
clknet_leaf_15_clk                           0
clknet_leaf_16_clk                           0
clknet_leaf_17_clk                           0
clknet_leaf_18_clk                           0
clknet_leaf_19_clk                           0
clknet_leaf_1_clk                            0
clknet_leaf_20_clk                           0
clknet_leaf_21_clk                           0
clknet_leaf_22_clk                           0
clknet_leaf_23_clk                           0
clknet_leaf_24_clk                           0
clknet_leaf_25_clk                           0
clknet_leaf_26_clk                           0
clknet_leaf_27_clk                           0
clknet_leaf_28_clk                           0
clknet_leaf_29_clk                           0
clknet_leaf_2_clk                            0
clknet_leaf_30_clk                           0
clknet_leaf_31_clk                           0
clknet_leaf_32_clk                           0
clknet_leaf_33_clk                           0
clknet_leaf_34_clk                           0
clknet_leaf_35_clk                           0
clknet_leaf_36_clk                           0
clknet_leaf_37_clk                           0
clknet_leaf_38_clk                           0
clknet_leaf_39_clk                           0
clknet_leaf_3_clk                            0
clknet_leaf_40_clk                           0
clknet_leaf_41_clk                           0
clknet_leaf_42_clk                           0
clknet_leaf_43_clk                           0
clknet_leaf_44_clk                           0
clknet_leaf_45_clk                           0
clknet_leaf_46_clk                           0
clknet_leaf_47_clk                           0
clknet_leaf_48_clk                           0
clknet_leaf_49_clk                           0
clknet_leaf_4_clk                            0
clknet_leaf_50_clk                           0
clknet_leaf_51_clk                           0
clknet_leaf_52_clk                           0
clknet_leaf_53_clk                           0
clknet_leaf_54_clk                           0
clknet_leaf_55_clk                           0
clknet_leaf_56_clk                           0
clknet_leaf_57_clk                           0
clknet_leaf_58_clk                           0
clknet_leaf_59_clk                           0
clknet_leaf_5_clk                            0
clknet_leaf_60_clk                           0
clknet_leaf_61_clk                           0
clknet_leaf_62_clk                           0
clknet_leaf_63_clk                           0
clknet_leaf_64_clk                           0
clknet_leaf_65_clk                           0
clknet_leaf_66_clk                           0
clknet_leaf_67_clk                           0
clknet_leaf_68_clk                           0
clknet_leaf_69_clk                           0
clknet_leaf_6_clk                            0
clknet_leaf_70_clk                           0
clknet_leaf_71_clk                           0
clknet_leaf_72_clk                           0
clknet_leaf_73_clk                           0
clknet_leaf_74_clk                           0
clknet_leaf_75_clk                           0
clknet_leaf_76_clk                           0
clknet_leaf_77_clk                           0
clknet_leaf_78_clk                           0
clknet_leaf_79_clk                           0
clknet_leaf_7_clk                            0
clknet_leaf_80_clk                           0
clknet_leaf_81_clk                           0
clknet_leaf_82_clk                           0
clknet_leaf_83_clk                           0
clknet_leaf_84_clk                           0
clknet_leaf_85_clk                           0
clknet_leaf_86_clk                           0
clknet_leaf_87_clk                           0
clknet_leaf_88_clk                           0
clknet_leaf_89_clk                           0
clknet_leaf_8_clk                            0
clknet_leaf_90_clk                           0
clknet_leaf_91_clk                           0
clknet_leaf_92_clk                           0
clknet_leaf_93_clk                           0
clknet_leaf_94_clk                           0
clknet_leaf_95_clk                           0
clknet_leaf_96_clk                           0
clknet_leaf_97_clk                           0
clknet_leaf_98_clk                           0
clknet_leaf_99_clk                           0
clknet_leaf_9_clk                            0
mesh_buf_1068_1068_y                         0
mesh_buf_1788_1068_y                         0
mesh_buf_2508_1068_y                         0
mesh_buf_3228_1068_y                         0
mesh_buf_3948_1068_y                         0
mesh_buf_4668_1068_y                         0
mesh_buf_5388_1068_y                         0
mesh_buf_6108_1068_y                         0
mesh_buf_6828_1068_y                         0
mesh_buf_7548_1068_y                         0
mesh_buf_8268_1068_y                         0
mesh_buf_8988_1068_y                         0
mesh_buf_9708_1068_y                         0
mesh_buf_10428_1068_y                        0
mesh_buf_11148_1068_y                        0
mesh_buf_11868_1068_y                        0
mesh_buf_12588_1068_y                        0
mesh_buf_13308_1068_y                        0
mesh_buf_14028_1068_y                        0
mesh_buf_14748_1068_y                        0
mesh_buf_1068_1788_y                         0
mesh_buf_1788_1788_y                         0
mesh_buf_2508_1788_y                         0
mesh_buf_3228_1788_y                         0
mesh_buf_3948_1788_y                         0
mesh_buf_4668_1788_y                         0
mesh_buf_5388_1788_y                         0
mesh_buf_6108_1788_y                         0
mesh_buf_6828_1788_y                         0
mesh_buf_7548_1788_y                         0
mesh_buf_8268_1788_y                         0
mesh_buf_8988_1788_y                         0
mesh_buf_9708_1788_y                         0
mesh_buf_10428_1788_y                        0
mesh_buf_11148_1788_y                        0
mesh_buf_11868_1788_y                        0
mesh_buf_12588_1788_y                        0
mesh_buf_13308_1788_y                        0
mesh_buf_14028_1788_y                        0
mesh_buf_14748_1788_y                        0
mesh_buf_1068_2508_y                         0
mesh_buf_1788_2508_y                         0
mesh_buf_2508_2508_y                         0
mesh_buf_3228_2508_y                         0
mesh_buf_3948_2508_y                         0
mesh_buf_4668_2508_y                         0
mesh_buf_5388_2508_y                         0
mesh_buf_6108_2508_y                         0
mesh_buf_6828_2508_y                         0
mesh_buf_7548_2508_y                         0
mesh_buf_8268_2508_y                         0
mesh_buf_8988_2508_y                         0
mesh_buf_9708_2508_y                         0
mesh_buf_10428_2508_y                        0
mesh_buf_11148_2508_y                        0
mesh_buf_11868_2508_y                        0
mesh_buf_12588_2508_y                        0
mesh_buf_13308_2508_y                        0
mesh_buf_14028_2508_y                        0
mesh_buf_14748_2508_y                        0
mesh_buf_1068_3228_y                         0
mesh_buf_1788_3228_y                         0
mesh_buf_2508_3228_y                         0
mesh_buf_3228_3228_y                         0
mesh_buf_3948_3228_y                         0
mesh_buf_4668_3228_y                         0
mesh_buf_5388_3228_y                         0
mesh_buf_6108_3228_y                         0
mesh_buf_6828_3228_y                         0
mesh_buf_7548_3228_y                         0
mesh_buf_8268_3228_y                         0
mesh_buf_8988_3228_y                         0
mesh_buf_9708_3228_y                         0
mesh_buf_10428_3228_y                        0
mesh_buf_11148_3228_y                        0
mesh_buf_11868_3228_y                        0
mesh_buf_12588_3228_y                        0
mesh_buf_13308_3228_y                        0
mesh_buf_14028_3228_y                        0
mesh_buf_14748_3228_y                        0
mesh_buf_1068_3948_y                         0
mesh_buf_1788_3948_y                         0
mesh_buf_2508_3948_y                         0
mesh_buf_3228_3948_y                         0
mesh_buf_3948_3948_y                         0
mesh_buf_4668_3948_y                         0
mesh_buf_5388_3948_y                         0
mesh_buf_6108_3948_y                         0
mesh_buf_6828_3948_y                         0
mesh_buf_7548_3948_y                         0
mesh_buf_8268_3948_y                         0
mesh_buf_8988_3948_y                         0
mesh_buf_9708_3948_y                         0
mesh_buf_10428_3948_y                        0
mesh_buf_11148_3948_y                        0
mesh_buf_11868_3948_y                        0
mesh_buf_12588_3948_y                        0
mesh_buf_13308_3948_y                        0
mesh_buf_14028_3948_y                        0
mesh_buf_14748_3948_y                        0
mesh_buf_1068_4668_y                         0
mesh_buf_1788_4668_y                         0
mesh_buf_2508_4668_y                         0
mesh_buf_3228_4668_y                         0
mesh_buf_3948_4668_y                         0
mesh_buf_4668_4668_y                         0
mesh_buf_5388_4668_y                         0
mesh_buf_6108_4668_y                         0
mesh_buf_6828_4668_y                         0
mesh_buf_7548_4668_y                         0
mesh_buf_8268_4668_y                         0
mesh_buf_8988_4668_y                         0
mesh_buf_9708_4668_y                         0
mesh_buf_10428_4668_y                        0
mesh_buf_11148_4668_y                        0
mesh_buf_11868_4668_y                        0
mesh_buf_12588_4668_y                        0
mesh_buf_13308_4668_y                        0
mesh_buf_14028_4668_y                        0
mesh_buf_14748_4668_y                        0
mesh_buf_1068_5388_y                         0
mesh_buf_1788_5388_y                         0
mesh_buf_2508_5388_y                         0
mesh_buf_3228_5388_y                         0
mesh_buf_3948_5388_y                         0
mesh_buf_4668_5388_y                         0
mesh_buf_5388_5388_y                         0
mesh_buf_6108_5388_y                         0
mesh_buf_6828_5388_y                         0
mesh_buf_7548_5388_y                         0
mesh_buf_8268_5388_y                         0
mesh_buf_8988_5388_y                         0
mesh_buf_9708_5388_y                         0
mesh_buf_10428_5388_y                        0
mesh_buf_11148_5388_y                        0
mesh_buf_11868_5388_y                        0
mesh_buf_12588_5388_y                        0
mesh_buf_13308_5388_y                        0
mesh_buf_14028_5388_y                        0
mesh_buf_14748_5388_y                        0
mesh_buf_1068_6108_y                         0
mesh_buf_1788_6108_y                         0
mesh_buf_2508_6108_y                         0
mesh_buf_3228_6108_y                         0
mesh_buf_3948_6108_y                         0
mesh_buf_4668_6108_y                         0
mesh_buf_5388_6108_y                         0
mesh_buf_6108_6108_y                         0
mesh_buf_6828_6108_y                         0
mesh_buf_7548_6108_y                         0
mesh_buf_8268_6108_y                         0
mesh_buf_8988_6108_y                         0
mesh_buf_9708_6108_y                         0
mesh_buf_10428_6108_y                        0
mesh_buf_11148_6108_y                        0
mesh_buf_11868_6108_y                        0
mesh_buf_12588_6108_y                        0
mesh_buf_13308_6108_y                        0
mesh_buf_14028_6108_y                        0
mesh_buf_14748_6108_y                        0
mesh_buf_1068_6828_y                         0
mesh_buf_1788_6828_y                         0
mesh_buf_2508_6828_y                         0
mesh_buf_3228_6828_y                         0
mesh_buf_3948_6828_y                         0
mesh_buf_4668_6828_y                         0
mesh_buf_5388_6828_y                         0
mesh_buf_6108_6828_y                         0
mesh_buf_6828_6828_y                         0
mesh_buf_7548_6828_y                         0
mesh_buf_8268_6828_y                         0
mesh_buf_8988_6828_y                         0
mesh_buf_9708_6828_y                         0
mesh_buf_10428_6828_y                        0
mesh_buf_11148_6828_y                        0
mesh_buf_11868_6828_y                        0
mesh_buf_12588_6828_y                        0
mesh_buf_13308_6828_y                        0
mesh_buf_14028_6828_y                        0
mesh_buf_14748_6828_y                        0
mesh_buf_1068_7548_y                         0
mesh_buf_1788_7548_y                         0
mesh_buf_2508_7548_y                         0
mesh_buf_3228_7548_y                         0
mesh_buf_3948_7548_y                         0
mesh_buf_4668_7548_y                         0
mesh_buf_5388_7548_y                         0
mesh_buf_6108_7548_y                         0
mesh_buf_6828_7548_y                         0
mesh_buf_7548_7548_y                         0
mesh_buf_8268_7548_y                         0
mesh_buf_8988_7548_y                         0
mesh_buf_9708_7548_y                         0
mesh_buf_10428_7548_y                        0
mesh_buf_11148_7548_y                        0
mesh_buf_11868_7548_y                        0
mesh_buf_12588_7548_y                        0
mesh_buf_13308_7548_y                        0
mesh_buf_14028_7548_y                        0
mesh_buf_14748_7548_y                        0
mesh_buf_1068_8268_y                         0
mesh_buf_1788_8268_y                         0
mesh_buf_2508_8268_y                         0
mesh_buf_3228_8268_y                         0
mesh_buf_3948_8268_y                         0
mesh_buf_4668_8268_y                         0
mesh_buf_5388_8268_y                         0
mesh_buf_6108_8268_y                         0
mesh_buf_6828_8268_y                         0
mesh_buf_7548_8268_y                         0
mesh_buf_8268_8268_y                         0
mesh_buf_8988_8268_y                         0
mesh_buf_9708_8268_y                         0
mesh_buf_10428_8268_y                        0
mesh_buf_11148_8268_y                        0
mesh_buf_11868_8268_y                        0
mesh_buf_12588_8268_y                        0
mesh_buf_13308_8268_y                        0
mesh_buf_14028_8268_y                        0
mesh_buf_14748_8268_y                        0
mesh_buf_1068_8988_y                         0
mesh_buf_1788_8988_y                         0
mesh_buf_2508_8988_y                         0
mesh_buf_3228_8988_y                         0
mesh_buf_3948_8988_y                         0
mesh_buf_4668_8988_y                         0
mesh_buf_5388_8988_y                         0
mesh_buf_6108_8988_y                         0
mesh_buf_6828_8988_y                         0
mesh_buf_7548_8988_y                         0
mesh_buf_8268_8988_y                         0
mesh_buf_8988_8988_y                         0
mesh_buf_9708_8988_y                         0
mesh_buf_10428_8988_y                        0
mesh_buf_11148_8988_y                        0
mesh_buf_11868_8988_y                        0
mesh_buf_12588_8988_y                        0
mesh_buf_13308_8988_y                        0
mesh_buf_14028_8988_y                        0
mesh_buf_14748_8988_y                        0
mesh_buf_1068_9708_y                         0
mesh_buf_1788_9708_y                         0
mesh_buf_2508_9708_y                         0
mesh_buf_3228_9708_y                         0
mesh_buf_3948_9708_y                         0
mesh_buf_4668_9708_y                         0
mesh_buf_5388_9708_y                         0
mesh_buf_6108_9708_y                         0
mesh_buf_6828_9708_y                         0
mesh_buf_7548_9708_y                         0
mesh_buf_8268_9708_y                         0
mesh_buf_8988_9708_y                         0
mesh_buf_9708_9708_y                         0
mesh_buf_10428_9708_y                        0
mesh_buf_11148_9708_y                        0
mesh_buf_11868_9708_y                        0
mesh_buf_12588_9708_y                        0
mesh_buf_13308_9708_y                        0
mesh_buf_14028_9708_y                        0
mesh_buf_14748_9708_y                        0
mesh_buf_1068_10428_y                        0
mesh_buf_1788_10428_y                        0
mesh_buf_2508_10428_y                        0
mesh_buf_3228_10428_y                        0
mesh_buf_3948_10428_y                        0
mesh_buf_4668_10428_y                        0
mesh_buf_5388_10428_y                        0
mesh_buf_6108_10428_y                        0
mesh_buf_6828_10428_y                        0
mesh_buf_7548_10428_y                        0
mesh_buf_8268_10428_y                        0
mesh_buf_8988_10428_y                        0
mesh_buf_9708_10428_y                        0
mesh_buf_10428_10428_y                       0
mesh_buf_11148_10428_y                       0
mesh_buf_11868_10428_y                       0
mesh_buf_12588_10428_y                       0
mesh_buf_13308_10428_y                       0
mesh_buf_14028_10428_y                       0
mesh_buf_14748_10428_y                       0
mesh_buf_1068_11148_y                        0
mesh_buf_1788_11148_y                        0
mesh_buf_2508_11148_y                        0
mesh_buf_3228_11148_y                        0
mesh_buf_3948_11148_y                        0
mesh_buf_4668_11148_y                        0
mesh_buf_5388_11148_y                        0
mesh_buf_6108_11148_y                        0
mesh_buf_6828_11148_y                        0
mesh_buf_7548_11148_y                        0
mesh_buf_8268_11148_y                        0
mesh_buf_8988_11148_y                        0
mesh_buf_9708_11148_y                        0
mesh_buf_10428_11148_y                       0
mesh_buf_11148_11148_y                       0
mesh_buf_11868_11148_y                       0
mesh_buf_12588_11148_y                       0
mesh_buf_13308_11148_y                       0
mesh_buf_14028_11148_y                       0
mesh_buf_14748_11148_y                       0
mesh_buf_1068_11868_y                        0
mesh_buf_1788_11868_y                        0
mesh_buf_2508_11868_y                        0
mesh_buf_3228_11868_y                        0
mesh_buf_3948_11868_y                        0
mesh_buf_4668_11868_y                        0
mesh_buf_5388_11868_y                        0
mesh_buf_6108_11868_y                        0
mesh_buf_6828_11868_y                        0
mesh_buf_7548_11868_y                        0
mesh_buf_8268_11868_y                        0
mesh_buf_8988_11868_y                        0
mesh_buf_9708_11868_y                        0
mesh_buf_10428_11868_y                       0
mesh_buf_11148_11868_y                       0
mesh_buf_11868_11868_y                       0
mesh_buf_12588_11868_y                       0
mesh_buf_13308_11868_y                       0
mesh_buf_14028_11868_y                       0
mesh_buf_14748_11868_y                       0
mesh_buf_1068_12588_y                        0
mesh_buf_1788_12588_y                        0
mesh_buf_2508_12588_y                        0
mesh_buf_3228_12588_y                        0
mesh_buf_3948_12588_y                        0
mesh_buf_4668_12588_y                        0
mesh_buf_5388_12588_y                        0
mesh_buf_6108_12588_y                        0
mesh_buf_6828_12588_y                        0
mesh_buf_7548_12588_y                        0
mesh_buf_8268_12588_y                        0
mesh_buf_8988_12588_y                        0
mesh_buf_9708_12588_y                        0
mesh_buf_10428_12588_y                       0
mesh_buf_11148_12588_y                       0
mesh_buf_11868_12588_y                       0
mesh_buf_12588_12588_y                       0
mesh_buf_13308_12588_y                       0
mesh_buf_14028_12588_y                       0
mesh_buf_14748_12588_y                       0
mesh_buf_1068_13308_y                        0
mesh_buf_1788_13308_y                        0
mesh_buf_2508_13308_y                        0
mesh_buf_3228_13308_y                        0
mesh_buf_3948_13308_y                        0
mesh_buf_4668_13308_y                        0
mesh_buf_5388_13308_y                        0
mesh_buf_6108_13308_y                        0
mesh_buf_6828_13308_y                        0
mesh_buf_7548_13308_y                        0
mesh_buf_8268_13308_y                        0
mesh_buf_8988_13308_y                        0
mesh_buf_9708_13308_y                        0
mesh_buf_10428_13308_y                       0
mesh_buf_11148_13308_y                       0
mesh_buf_11868_13308_y                       0
mesh_buf_12588_13308_y                       0
mesh_buf_13308_13308_y                       0
mesh_buf_14028_13308_y                       0
mesh_buf_14748_13308_y                       0
mesh_buf_1068_14028_y                        0
mesh_buf_1788_14028_y                        0
mesh_buf_2508_14028_y                        0
mesh_buf_3228_14028_y                        0
mesh_buf_3948_14028_y                        0
mesh_buf_4668_14028_y                        0
mesh_buf_5388_14028_y                        0
mesh_buf_6108_14028_y                        0
mesh_buf_6828_14028_y                        0
mesh_buf_7548_14028_y                        0
mesh_buf_8268_14028_y                        0
mesh_buf_8988_14028_y                        0
mesh_buf_9708_14028_y                        0
mesh_buf_10428_14028_y                       0
mesh_buf_11148_14028_y                       0
mesh_buf_11868_14028_y                       0
mesh_buf_12588_14028_y                       0
mesh_buf_13308_14028_y                       0
mesh_buf_14028_14028_y                       0
mesh_buf_14748_14028_y                       0
mesh_buf_1068_14748_y                        0
mesh_buf_1788_14748_y                        0
mesh_buf_2508_14748_y                        0
mesh_buf_3228_14748_y                        0
mesh_buf_3948_14748_y                        0
mesh_buf_4668_14748_y                        0
mesh_buf_5388_14748_y                        0
mesh_buf_6108_14748_y                        0
mesh_buf_6828_14748_y                        0
mesh_buf_7548_14748_y                        0
mesh_buf_8268_14748_y                        0
mesh_buf_8988_14748_y                        0
mesh_buf_9708_14748_y                        0
mesh_buf_10428_14748_y                       0
mesh_buf_11148_14748_y                       0
mesh_buf_11868_14748_y                       0
mesh_buf_12588_14748_y                       0
mesh_buf_13308_14748_y                       0
mesh_buf_14028_14748_y                       0
mesh_buf_14748_14748_y                       0
n_448_6                                      0
n_448_10                                     0
n_448_14                                     0
n_448_17                                     0
n_448_19                                     0
n_448_21                                     0
n_448_23                                     0
n_448_25                                     0
n_448_27                                     0
n_448_29                                     0
n_448_31                                     0
n_448_33                                     0
n_448_35                                     0
n_448_37                                     0
n_448_39                                     0
n_448_41                                     0
n_448_43                                     0
n_448_45                                     0
n_448_47                                     0
n_448_49                                     0
n_448_51                                     0
n_448_53                                     0
n_448_55                                     0
n_448_57                                     0
n_448_59                                     0
n_448_63                                     0
n_448_67                                     0
n_448_76                                     0
n_448_82                                     0
n_448_84                                     0
n_448_86                                     0
n_448_88                                     0
n_448_90                                     0
n_448_92                                     0
n_448_94                                     0
n_448_96                                     0
n_448_98                                     0
n_448_100                                    0
n_448_102                                    0
n_448_104                                    0
n_448_106                                    0
n_448_108                                    0
n_448_110                                    0
n_448_112                                    0
n_448_114                                    0
n_448_116                                    0
n_448_118                                    0
n_448_124                                    0
n_448_130                                    0
n_448_136                                    0
n_448_142                                    0
n_448_148                                    0
n_448_154                                    0
n_448_160                                    0
n_448_166                                    0
n_448_172                                    0
n_448_178                                    0
n_448_184                                    0
n_448_190                                    0
n_448_196                                    0
n_448_202                                    0
n_448_208                                    0
n_448_214                                    0
n_448_220                                    0
n_448_226                                    0
n_448_232                                    0
n_448_236                                    0
n_448_240                                    0
n_448_242                                    0
n_448_244                                    0
n_448_246                                    0
n_448_248                                    0
n_448_250                                    0
n_448_252                                    0
n_448_254                                    0
n_448_256                                    0
n_448_258                                    0
n_448_260                                    0
n_448_262                                    0
n_448_264                                    0
n_448_266                                    0
n_448_268                                    0
n_448_270                                    0
n_448_272                                    0
n_448_274                                    0
n_448_276                                    0
n_448_278                                    0
n_448_284                                    0
n_448_288                                    0
n_448_290                                    0
n_448_292                                    0
n_448_296                                    0
n_448_300                                    0
n_448_307                                    0
n_448_311                                    0
n_448_315                                    0
n_448_322                                    0
n_448_324                                    0
n_448_328                                    0
n_448_332                                    0
n_448_339                                    0
n_448_341                                    0
n_448_347                                    0
n_448_351                                    0
n_448_353                                    0
n_448_355                                    0
n_448_357                                    0
n_448_361                                    0
n_448_365                                    0
dpath_a_reg_out__3____dffe_pp__clk               0
n_448_374                                    0
n_448_376                                    0
n_448_378                                    0
n_448_380                                    0
n_448_382                                    0
n_448_384                                    0
n_448_386                                    0
n_448_388                                    0
n_448_390                                    0
n_448_392                                    0
n_448_394                                    0
n_448_396                                    0
n_448_398                                    0
n_448_400                                    0
n_448_402                                    0
n_448_404                                    0
n_448_406                                    0
n_448_408                                    0
n_448_412                                    0
n_448_416                                    0
n_448_423                                    0
n_448_427                                    0
n_448_431                                    0
n_448_438                                    0
n_448_442                                    0
n_448_446                                    0
n_448_450                                    0
n_448_457                                    0
n_448_459                                    0
n_448_463                                    0
n_448_467                                    0
n_448_476                                    0
n_448_478                                    0
n_448_480                                    0
n_448_482                                    0
n_448_484                                    0
n_448_486                                    0
n_448_488                                    0
n_448_490                                    0
n_448_492                                    0
n_448_494                                    0
n_448_496                                    0
n_448_498                                    0
n_448_500                                    0
n_448_502                                    0
n_448_504                                    0
n_448_506                                    0
n_448_508                                    0
n_448_510                                    0
n_448_512                                    0
n_448_514                                    0
n_448_516                                    0
n_448_518                                    0
n_448_520                                    0
n_448_522                                    0
n_448_524                                    0
n_448_526                                    0
n_448_528                                    0
n_448_530                                    0
n_448_536                                    0
n_448_540                                    0
n_448_542                                    0
n_448_546                                    0
n_448_550                                    0
n_448_554                                    0
n_448_561                                    0
n_448_563                                    0
n_448_567                                    0
n_448_571                                    0
n_448_578                                    0
n_448_580                                    0
n_448_586                                    0
n_448_590                                    0
n_448_592                                    0
n_448_594                                    0
n_448_596                                    0
n_448_598                                    0
n_448_600                                    0
n_448_602                                    0
n_448_604                                    0
n_448_608                                    0
n_448_612                                    0
n_448_619                                    0
n_448_623                                    0
n_448_627                                    0
n_448_634                                    0
n_448_638                                    0
n_448_642                                    0
n_448_646                                    0
n_448_650                                    0
n_448_654                                    0
n_448_661                                    0
n_448_665                                    0
n_448_669                                    0
n_448_673                                    0
n_448_680                                    0
n_448_684                                    0
n_448_688                                    0
dpath_b_reg_out__1____dffe_pp__clk               0
n_448_695                                    0
n_448_697                                    0
n_448_701                                    0
n_448_703                                    0
n_448_707                                    0
n_448_711                                    0
n_448_715                                    0
n_448_726                                    0
n_448_728                                    0
n_448_734                                    0
n_448_738                                    0
n_448_740                                    0
n_448_744                                    0
n_448_748                                    0
n_448_757                                    0
n_448_759                                    0
n_448_763                                    0
n_448_767                                    0
n_448_774                                    0
n_448_776                                    0
n_448_782                                    0
n_448_786                                    0
n_448_788                                    0
n_448_790                                    0
n_448_794                                    0
n_448_798                                    0
n_448_802                                    0
n_448_809                                    0
n_448_813                                    0
n_448_815                                    0
n_448_817                                    0
n_448_819                                    0
n_448_825                                    0
n_448_829                                    0
n_448_831                                    0
n_448_835                                    0
n_448_839                                    0
n_448_843                                    0
n_448_850                                    0
n_448_854                                    0
n_448_858                                    0
n_448_865                                    0
n_448_867                                    0
n_448_871                                    0
n_448_873                                    0
n_448_875                                    0
n_448_881                                    0
n_448_885                                    0
n_448_889                                    0
n_448_891                                    0
n_448_895                                    0
n_448_899                                    0
n_448_903                                    0
n_448_910                                    0
n_448_912                                    0
n_448_914                                    0
n_448_920                                    0
n_448_924                                    0
n_448_928                                    0
n_448_934                                    0
n_448_936                                    0
n_448_938                                    0
n_448_940                                    0
n_448_942                                    0
n_448_944                                    0
n_448_946                                    0
n_448_948                                    0
n_448_950                                    0
n_448_952                                    0
n_448_954                                    0
n_448_956                                    0
n_448_960                                    0
n_448_964                                    0
n_448_971                                    0
n_448_975                                    0
n_448_979                                    0
n_448_983                                    0
n_448_990                                    0
n_448_994                                    0
n_448_998                                    0
n_448_1002                                   0
n_448_1009                                   0
n_448_1013                                   0
n_448_1017                                   0
n_448_1024                                   0
n_448_1028                                   0
n_448_1032                                   0
n_448_1036                                   0
n_448_1040                                   0
n_448_1044                                   0
n_448_1051                                   0
n_448_1053                                   0
n_448_1057                                   0
n_448_1059                                   0
n_448_1063                                   0
n_448_1067                                   0
dpath_b_reg_out__3____dffe_pp__clk               0
n_448_1076                                   0
n_448_1078                                   0
n_448_1080                                   0
n_448_1082                                   0
n_448_1084                                   0
n_448_1086                                   0
n_448_1088                                   0
n_448_1090                                   0
n_448_1094                                   0
n_448_1098                                   0
n_448_1102                                   0
dpath_b_reg_out__8____dffe_pp__clk               0
n_448_1109                                   0
n_448_1111                                   0
n_448_1113                                   0
n_448_1115                                   0
n_448_1117                                   0
n_448_1119                                   0
n_448_1121                                   0
n_448_1123                                   0
n_448_1125                                   0
n_448_1127                                   0
n_448_1129                                   0
n_448_1131                                   0
n_448_1135                                   0
n_448_1139                                   0
n_448_1146                                   0
n_448_1150                                   0
n_448_1154                                   0
n_448_1161                                   0
n_448_1165                                   0
n_448_1169                                   0
n_448_1173                                   0
n_448_1180                                   0
n_448_1184                                   0
n_448_1188                                   0
n_448_1192                                   0
n_448_1196                                   0
n_448_1203                                   0
n_448_1205                                   0
n_448_1210                                   0
n_448_1212                                   0
n_448_1216                                   0
n_448_1220                                   0
n_448_1227                                   0
n_448_1229                                   0
n_448_1233                                   0
n_448_1237                                   0
n_448_1246                                   0
n_448_1248                                   0
n_448_1250                                   0
n_448_1252                                   0
n_448_1254                                   0
n_448_1256                                   0
n_448_1258                                   0
n_448_1260                                   0
n_448_1262                                   0
n_448_1264                                   0
n_448_1266                                   0
n_448_1268                                   0
n_448_1270                                   0
n_448_1274                                   0
n_448_1280                                   0
n_448_1282                                   0
n_448_1284                                   0
n_448_1286                                   0
n_448_1288                                   0
n_448_1290                                   0
n_448_1292                                   0
n_448_1294                                   0
n_448_1298                                   0
n_448_1302                                   0
n_448_1306                                   0
n_448_1315                                   0
n_448_1319                                   0
n_448_1323                                   0
n_448_1330                                   0
n_448_1334                                   0
n_448_1338                                   0
n_448_1342                                   0
n_448_1349                                   0
n_448_1353                                   0
n_448_1357                                   0
n_448_1361                                   0
n_448_1365                                   0
n_448_1369                                   0
n_448_1378                                   0
n_448_1382                                   0
n_448_1386                                   0
n_448_1390                                   0
n_448_1394                                   0
n_448_1401                                   0
n_448_1403                                   0
n_448_1405                                   0
n_448_1409                                   0
n_448_1413                                   0
n_448_1415                                   0
n_448_1417                                   0
n_448_1419                                   0
n_448_1421                                   0
n_448_1423                                   0
n_448_1425                                   0
n_448_1427                                   0
n_448_1429                                   0
n_448_1431                                   0
n_448_1433                                   0
n_448_1435                                   0
n_448_1437                                   0
n_448_1439                                   0
n_448_1441                                   0
n_448_1443                                   0
n_448_1445                                   0
n_448_1449                                   0
n_448_1453                                   0
n_448_1460                                   0
n_448_1464                                   0
n_448_1468                                   0
n_448_1475                                   0
n_448_1479                                   0
n_448_1483                                   0
n_448_1487                                   0
n_448_1494                                   0
n_448_1498                                   0
n_448_1502                                   0
n_448_1506                                   0
n_448_1513                                   0
n_448_1517                                   0
n_448_1521                                   0
n_448_1525                                   0
n_448_1532                                   0
n_448_1536                                   0
n_448_1540                                   0
n_448_1544                                   0
n_448_1551                                   0
n_448_1553                                   0
n_448_1557                                   0
n_448_1561                                   0
n_448_1568                                   0
n_448_1572                                   0
n_448_1574                                   0
n_448_1578                                   0
n_448_1582                                   0
n_448_1591                                   0
n_448_1593                                   0
n_448_1595                                   0
n_448_1597                                   0
n_448_1599                                   0
n_448_1601                                   0
n_448_1603                                   0
n_448_1605                                   0
n_448_1607                                   0
n_448_1609                                   0
n_448_1611                                   0
n_448_1613                                   0
n_448_1617                                   0
n_448_1621                                   0
n_448_1623                                   0
n_448_1627                                   0
n_448_1631                                   0
n_448_1640                                   0
n_448_1642                                   0
n_448_1646                                   0
n_448_1650                                   0
n_448_1654                                   0
n_448_1658                                   0
n_448_1665                                   0
n_448_1667                                   0
n_448_1671                                   0
n_448_1677                                   0
n_448_1679                                   0
n_448_1683                                   0
n_448_1687                                   0
n_448_1694                                   0
n_448_1700                                   0
n_448_1702                                   0
n_448_1704                                   0
n_448_1706                                   0
n_448_1708                                   0
n_448_1710                                   0
n_448_1712                                   0
n_448_1714                                   0
n_448_1716                                   0
n_448_1718                                   0
n_448_1720                                   0
n_448_1722                                   0
n_448_1726                                   0
n_448_1730                                   0
n_448_1737                                   0
n_448_1741                                   0
n_448_1745                                   0
n_448_1752                                   0
n_448_1756                                   0
n_448_1760                                   0
n_448_1764                                   0
n_448_1768                                   0
n_448_1775                                   0
n_448_1779                                   0
n_448_1783                                   0
n_448_1790                                   0
n_448_1794                                   0
n_448_1798                                   0
n_448_1802                                   0
n_448_1809                                   0
n_448_1813                                   0
n_448_1817                                   0
n_448_1821                                   0
n_448_1828                                   0
n_448_1832                                   0
n_448_1836                                   0
n_448_1840                                   0
n_448_1847                                   0
n_448_1851                                   0
n_448_1855                                   0
n_448_1859                                   0
n_448_1863                                   0
n_448_1867                                   0
n_448_1874                                   0
n_448_1878                                   0
n_448_1880                                   0
n_448_1884                                   0
n_448_1888                                   0
n_448_1895                                   0
n_448_1897                                   0
n_448_1901                                   0
n_448_1905                                   0
n_448_1914                                   0
n_448_1916                                   0
n_448_1918                                   0
n_448_1920                                   0
n_448_1922                                   0
n_448_1924                                   0
n_448_1930                                   0
n_448_1934                                   0
n_448_1936                                   0
n_448_1938                                   0
n_448_1940                                   0
n_448_1946                                   0
n_448_1950                                   0
ctrl_state_out__2____dff_p__clk               0
n_448_1957                                   0
n_448_1961                                   0
n_448_1965                                   0
n_448_1969                                   0
n_448_1976                                   0
n_448_1978                                   0
n_448_1982                                   0
n_448_1986                                   0
n_448_1993                                   0
n_448_1995                                   0
n_448_2001                                   0
n_448_2005                                   0
n_448_2007                                   0
n_448_2009                                   0
n_448_2011                                   0
n_448_2015                                   0
n_448_2019                                   0
n_448_2023                                   0
n_448_2030                                   0
n_448_2034                                   0
n_448_2038                                   0
n_448_2042                                   0
n_448_2049                                   0
n_448_2051                                   0
n_448_2055                                   0
n_448_2059                                   0
n_448_2068                                   0
n_448_2070                                   0
n_448_2072                                   0
n_448_2074                                   0
n_448_2080                                   0
n_448_2084                                   0
n_448_2086                                   0
n_448_2090                                   0
n_448_2094                                   0
n_448_2098                                   0
n_448_2105                                   0
n_448_2107                                   0
n_448_2111                                   0
n_448_2115                                   0
n_448_2122                                   0
n_448_2124                                   0
n_448_2130                                   0
n_448_2134                                   0
n_448_2136                                   0
n_448_2138                                   0
n_448_2142                                   0
n_448_2144                                   0
n_448_2148                                   0
n_448_2152                                   0
n_448_2161                                   0
n_448_2163                                   0
n_448_2169                                   0
n_448_2173                                   0
n_448_2175                                   0
n_448_2179                                   0
n_448_2183                                   0
n_448_2187                                   0
n_448_2194                                   0
n_448_2196                                   0
n_448_2200                                   0
n_448_2204                                   0
n_448_2211                                   0
n_448_2213                                   0
n_448_2219                                   0
n_448_2223                                   0
n_448_2225                                   0
n_448_2227                                   0
n_448_2231                                   0
n_448_2235                                   0
n_448_2239                                   0
n_448_2246                                   0
n_448_2248                                   0
n_448_2252                                   0
n_448_2256                                   0
n_448_2263                                   0
n_448_2267                                   0
n_448_2269                                   0
n_448_2273                                   0
n_448_2277                                   0
n_448_2284                                   0
n_448_2288                                   0
n_448_2290                                   0
n_448_2294                                   0
n_448_2298                                   0
n_448_2305                                   0
n_448_2309                                   0
n_448_2311                                   0
n_448_2315                                   0
n_448_2319                                   0
n_448_2323                                   0
n_448_2330                                   0
n_448_2334                                   0
n_448_2336                                   0
n_448_2338                                   0
n_448_2342                                   0
n_448_2346                                   0
n_448_2350                                   0
n_448_2354                                   0
n_448_2358                                   0
dpath_b_reg_out__0____dffe_pp__clk               0
n_448_2365                                   0
n_448_2367                                   0
n_448_2369                                   0
n_448_2371                                   0
n_448_2373                                   0
n_448_2375                                   0
n_448_2377                                   0
n_448_2379                                   0
n_448_2381                                   0
n_448_2383                                   0
n_448_2385                                   0
n_448_2387                                   0
n_448_2389                                   0
n_448_2391                                   0
n_448_2393                                   0
n_448_2395                                   0
n_448_2397                                   0
n_448_2399                                   0
n_448_2401                                   0
n_448_2403                                   0
n_448_2405                                   0
n_448_2407                                   0
n_448_2409                                   0
n_448_2413                                   0
n_448_2415                                   0
n_448_2419                                   0
n_448_2423                                   0
n_448_2425                                   0
n_448_2427                                   0
n_448_2429                                   0
n_448_2431                                   0
n_448_2433                                   0
n_448_2435                                   0
n_448_2437                                   0
n_448_2441                                   0
n_448_2445                                   0
n_448_2452                                   0
n_448_2456                                   0
n_448_2460                                   0
n_448_2467                                   0
n_448_2471                                   0
n_448_2475                                   0
n_448_2479                                   0
n_448_2483                                   0
n_448_2490                                   0
n_448_2494                                   0
n_448_2498                                   0
n_448_2505                                   0
n_448_2509                                   0
n_448_2513                                   0
n_448_2517                                   0
n_448_2524                                   0
n_448_2526                                   0
n_448_2530                                   0
n_448_2532                                   0
n_448_2534                                   0
n_448_2538                                   0
n_448_2542                                   0
n_448_2546                                   0
n_448_2553                                   0
n_448_2555                                   0
n_448_2559                                   0
n_448_2563                                   0
n_448_2570                                   0
n_448_2572                                   0
n_448_2574                                   0
n_448_2576                                   0
n_448_2580                                   0
n_448_2584                                   0
n_448_2588                                   0
n_448_2590                                   0
n_448_2592                                   0
n_448_2594                                   0
n_448_2596                                   0
n_448_2598                                   0
n_448_2600                                   0
n_448_2602                                   0
n_448_2606                                   0
n_448_2610                                   0
n_448_2617                                   0
n_448_2621                                   0
n_448_2625                                   0
n_448_2629                                   0
n_448_2633                                   0
n_448_2642                                   0
n_448_2644                                   0
n_448_2648                                   0
n_448_2650                                   0
n_448_2654                                   0
n_448_2658                                   0
n_448_2662                                   0
n_448_2666                                   0
n_448_2673                                   0
n_448_2677                                   0
n_448_2681                                   0
n_448_2688                                   0
n_448_2690                                   0
n_448_2694                                   0
n_448_2696                                   0
n_448_2700                                   0
n_448_2704                                   0
n_448_2708                                   0
n_448_2712                                   0
n_448_2719                                   0
n_448_2721                                   0
n_448_2725                                   0
n_448_2727                                   0
n_448_2731                                   0
n_448_2735                                   0
n_448_2737                                   0
n_448_2741                                   0
n_448_2745                                   0
n_448_2752                                   0
n_448_2754                                   0
n_448_2756                                   0
n_448_2758                                   0
n_448_2762                                   0
n_448_2766                                   0
n_448_2768                                   0
n_448_2772                                   0
n_448_2776                                   0
n_448_2780                                   0
n_448_2787                                   0
n_448_2789                                   0
n_448_2793                                   0
n_448_2797                                   0
n_448_2804                                   0
n_448_2806                                   0
n_448_2810                                   0
n_448_2812                                   0
n_448_2814                                   0
n_448_2818                                   0
n_448_2820                                   0
n_448_2825                                   0
n_448_2827                                   0
n_448_2829                                   0
n_448_2831                                   0
n_448_2834                                   0
n_448_2836                                   0
n_448_2838                                   0
n_448_2840                                   0
n_448_2842                                   0
n_448_2844                                   0
n_448_2846                                   0
n_448_2848                                   0
n_448_2850                                   0
n_448_2852                                   0
n_448_2854                                   0
n_448_2856                                   0
n_448_2858                                   0
n_448_2860                                   0
n_448_2862                                   0
n_448_2866                                   0
n_448_2868                                   0
n_448_2870                                   0
n_448_2872                                   0
n_448_2874                                   0
n_448_2876                                   0
n_448_2878                                   0
n_448_2880                                   0
n_448_2882                                   0
n_448_2884                                   0
n_448_2886                                   0
n_448_2890                                   0
n_448_2894                                   0
n_448_2901                                   0
n_448_2905                                   0
n_448_2909                                   0
n_448_2916                                   0
n_448_2920                                   0
n_448_2924                                   0
n_448_2928                                   0
n_448_2935                                   0
n_448_2939                                   0
n_448_2943                                   0
n_448_2947                                   0
n_448_2954                                   0
n_448_2958                                   0
n_448_2962                                   0
n_448_2966                                   0
n_448_2970                                   0
n_448_2974                                   0
n_448_2981                                   0
n_448_2985                                   0
n_448_2989                                   0
n_448_2993                                   0
n_448_3000                                   0
n_448_3004                                   0
n_448_3008                                   0
n_448_3012                                   0
n_448_3016                                   0
n_448_3023                                   0
n_448_3025                                   0
n_448_3029                                   0
n_448_3033                                   0
n_448_3042                                   0
n_448_3044                                   0
n_448_3046                                   0
n_448_3048                                   0
n_448_3050                                   0
n_448_3052                                   0
n_448_3054                                   0
n_448_3056                                   0
n_448_3060                                   0
n_448_3064                                   0
n_448_3068                                   0
n_448_3072                                   0
dpath_a_reg_out__2____dffe_pp__clk               0
n_448_3081                                   0
n_448_3083                                   0
n_448_3087                                   0
n_448_3091                                   0
n_448_3095                                   0
n_448_3102                                   0
n_448_3104                                   0
n_448_3108                                   0
n_448_3112                                   0
n_448_3114                                   0
n_448_3116                                   0
n_448_3120                                   0
n_448_3124                                   0
n_448_3128                                   0
ctrl_state_out__1____dff_p__clk               0
n_448_3137                                   0
n_448_3139                                   0
n_448_3141                                   0
n_448_3143                                   0
n_448_3147                                   0
n_448_3151                                   0
n_448_3155                                   0
n_448_3162                                   0
n_448_3166                                   0
n_448_3170                                   0
n_448_3177                                   0
n_448_3181                                   0
n_448_3185                                   0
n_448_3194                                   0
n_448_3196                                   0
n_448_3200                                   0
n_448_3204                                   0
n_448_3211                                   0
n_448_3213                                   0
n_448_3217                                   0
n_448_3219                                   0
n_448_3221                                   0
n_448_3225                                   0
n_448_3229                                   0
n_448_3233                                   0
n_448_3240                                   0
n_448_3242                                   0
n_448_3246                                   0
n_448_3250                                   0
n_448_3259                                   0
n_448_3261                                   0
n_448_3263                                   0
n_448_3265                                   0
n_448_3269                                   0
n_448_3271                                   0
n_448_3275                                   0
n_448_3279                                   0
n_448_3283                                   0
n_448_3290                                   0
n_448_3292                                   0
n_448_3296                                   0
n_448_3300                                   0
n_448_3304                                   0
n_448_3308                                   0
n_448_3315                                   0
n_448_3317                                   0
n_448_3321                                   0
n_448_3323                                   0
n_448_3325                                   0
n_448_3327                                   0
n_448_3329                                   0
n_448_3331                                   0
n_448_3333                                   0
n_448_3335                                   0
n_448_3337                                   0
n_448_3339                                   0
n_448_3341                                   0
n_448_3343                                   0
n_448_3345                                   0
n_448_3347                                   0
n_448_3349                                   0
n_448_3351                                   0
n_448_3353                                   0
n_448_3355                                   0
n_448_3357                                   0
n_448_3361                                   0
n_448_3365                                   0
n_448_3369                                   0
n_448_3378                                   0
n_448_3380                                   0
n_448_3382                                   0
n_448_3384                                   0
n_448_3386                                   0
n_448_3388                                   0
n_448_3390                                   0
n_448_3394                                   0
n_448_3396                                   0
n_448_3398                                   0
n_448_3400                                   0
n_448_3402                                   0
n_448_3404                                   0
n_448_3406                                   0
n_448_3408                                   0
n_448_3410                                   0
n_448_3412                                   0
n_448_3414                                   0
n_448_3416                                   0
n_448_3420                                   0
n_448_3424                                   0
n_448_3431                                   0
n_448_3435                                   0
n_448_3439                                   0
n_448_3446                                   0
n_448_3450                                   0
n_448_3454                                   0
n_448_3458                                   0
n_448_3465                                   0
n_448_3469                                   0
n_448_3473                                   0
dpath_b_reg_out__5____dffe_pp__clk               0
n_448_3482                                   0
n_448_3486                                   0
n_448_3490                                   0
n_448_3497                                   0
n_448_3501                                   0
n_448_3505                                   0
n_448_3509                                   0
n_448_3516                                   0
n_448_3520                                   0
n_448_3524                                   0
n_448_3528                                   0
n_448_3535                                   0
n_448_3539                                   0
n_448_3543                                   0
n_448_3547                                   0
n_448_3554                                   0
n_448_3558                                   0
n_448_3562                                   0
n_448_3566                                   0
n_448_3570                                   0
n_448_3577                                   0
n_448_3581                                   0
n_448_3585                                   0
n_448_3592                                   0
n_448_3596                                   0
n_448_3600                                   0
n_448_3604                                   0
n_448_3608                                   0
n_448_3617                                   0
n_448_3619                                   0
n_448_3623                                   0
n_448_3627                                   0
n_448_3634                                   0
n_448_3638                                   0
n_448_3640                                   0
n_448_3644                                   0
n_448_3648                                   0
n_448_3652                                   0
n_448_3656                                   0
n_448_3665                                   0
n_448_3667                                   0
n_448_3671                                   0
n_448_3673                                   0
n_448_3680                                   0
n_448_3684                                   0
n_448_3688                                   0
n_448_3692                                   0
n_448_3696                                   0
n_448_3705                                   0
n_448_3707                                   0
n_448_3711                                   0
n_448_3715                                   0
n_448_3722                                   0
n_448_3726                                   0
n_448_3728                                   0
n_448_3732                                   0
n_448_3736                                   0
n_448_3743                                   0
n_448_3747                                   0
n_448_3749                                   0
n_448_3753                                   0
n_448_3755                                   0
n_448_3762                                   0
n_448_3766                                   0
n_448_3773                                   0
n_448_3775                                   0
n_448_3779                                   0
n_448_3783                                   0
n_448_3790                                   0
n_448_3794                                   0
n_448_3796                                   0
n_448_3800                                   0
n_448_3804                                   0
n_448_3808                                   0
n_448_3815                                   0
n_448_3817                                   0
n_448_3821                                   0
n_448_3825                                   0
n_448_3829                                   0
n_448_3836                                   0
n_448_3838                                   0
n_448_3842                                   0
n_448_3846                                   0
n_448_3850                                   0
n_448_3857                                   0
n_448_3861                                   0
n_448_3863                                   0
n_448_3865                                   0
n_448_3867                                   0
n_448_3869                                   0
n_448_3871                                   0
n_448_3873                                   0
n_448_3875                                   0
n_448_3877                                   0
n_448_3879                                   0
n_448_3881                                   0
n_448_3883                                   0
n_448_3885                                   0
n_448_3887                                   0
n_448_3891                                   0
n_448_3895                                   0
n_448_3902                                   0
n_448_3906                                   0
n_448_3910                                   0
n_448_3917                                   0
n_448_3921                                   0
n_448_3925                                   0
n_448_3929                                   0
n_448_3933                                   0
n_448_3937                                   0
n_448_3944                                   0
n_448_3948                                   0
n_448_3952                                   0
n_448_3956                                   0
n_448_3963                                   0
n_448_3967                                   0
n_448_3971                                   0
n_448_3980                                   0
n_448_3986                                   0
n_448_3990                                   0
dpath_a_reg_out__8____dffe_pp__clk               0
n_448_3997                                   0
n_448_4002                                   0
n_448_4006                                   0
n_448_4010                                   0
n_448_4017                                   0
n_448_4021                                   0
n_448_4025                                   0
n_448_4029                                   0
n_448_4036                                   0
n_448_4040                                   0
n_448_4044                                   0
n_448_4046                                   0
n_448_4050                                   0
n_448_4054                                   0
n_448_4061                                   0
n_448_4065                                   0
n_448_4069                                   0
n_448_4076                                   0
n_448_4078                                   0
n_448_4082                                   0
n_448_4086                                   0
n_448_4093                                   0
n_448_4097                                   0
n_448_4099                                   0
n_448_4103                                   0
n_448_4107                                   0
n_448_4114                                   0
n_448_4118                                   0
n_448_4120                                   0
n_448_4124                                   0
n_448_4128                                   0
n_448_4132                                   0
n_448_4141                                   0
n_448_4145                                   0
n_448_4147                                   0
n_448_4151                                   0
n_448_4155                                   0
n_448_4159                                   0
n_448_4166                                   0
n_448_4168                                   0
n_448_4172                                   0
n_448_4176                                   0
n_448_4183                                   0
n_448_4187                                   0
n_448_4189                                   0
n_448_4193                                   0
n_448_4197                                   0
n_448_4204                                   0
n_448_4208                                   0
n_448_4210                                   0
n_448_4214                                   0
n_448_4218                                   0
n_448_4225                                   0
n_448_4229                                   0
n_448_4231                                   0
n_448_4235                                   0
n_448_4239                                   0
n_448_4243                                   0
n_448_4252                                   0
n_448_4256                                   0
n_448_4258                                   0
n_448_4262                                   0
n_448_4266                                   0
n_448_4273                                   0
n_448_4277                                   0
n_448_4279                                   0
n_448_4283                                   0
n_448_4287                                   0
n_448_4294                                   0
n_448_4298                                   0
n_448_4302                                   0
n_448_4304                                   0
n_448_4306                                   0
n_448_4308                                   0
n_448_4310                                   0
n_448_4312                                   0
n_448_4314                                   0
n_448_4316                                   0
n_448_4318                                   0
n_448_4320                                   0
n_448_4322                                   0
n_448_4326                                   0
n_448_4330                                   0
n_448_4337                                   0
n_448_4341                                   0
n_448_4345                                   0
n_448_4349                                   0
n_448_4356                                   0
n_448_4360                                   0
n_448_4364                                   0
n_448_4371                                   0
n_448_4375                                   0
n_448_4379                                   0
n_448_4383                                   0
n_448_4390                                   0
n_448_4394                                   0
n_448_4398                                   0
n_448_4402                                   0
n_448_4409                                   0
n_448_4413                                   0
n_448_4417                                   0
n_448_4421                                   0
n_448_4428                                   0
[...]
e.xmesh_buf_3228_10428.ebuf#branch               0
e.xmesh_buf_2508_10428.ebuf#branch               0
e.xmesh_buf_1788_10428.ebuf#branch               0
e.xmesh_buf_1068_10428.ebuf#branch               0
e.xmesh_buf_14748_9708.ebuf#branch               0
e.xmesh_buf_14028_9708.ebuf#branch               0
e.xmesh_buf_13308_9708.ebuf#branch               0
e.xmesh_buf_12588_9708.ebuf#branch               0
e.xmesh_buf_11868_9708.ebuf#branch               0
e.xmesh_buf_11148_9708.ebuf#branch               0
e.xmesh_buf_10428_9708.ebuf#branch               0
e.xmesh_buf_9708_9708.ebuf#branch               0
e.xmesh_buf_8988_9708.ebuf#branch               0
e.xmesh_buf_8268_9708.ebuf#branch               0
e.xmesh_buf_7548_9708.ebuf#branch               0
e.xmesh_buf_6828_9708.ebuf#branch               0
e.xmesh_buf_6108_9708.ebuf#branch               0
e.xmesh_buf_5388_9708.ebuf#branch               0
e.xmesh_buf_4668_9708.ebuf#branch               0
e.xmesh_buf_3948_9708.ebuf#branch               0
e.xmesh_buf_3228_9708.ebuf#branch               0
e.xmesh_buf_2508_9708.ebuf#branch               0
e.xmesh_buf_1788_9708.ebuf#branch               0
e.xmesh_buf_1068_9708.ebuf#branch               0
e.xmesh_buf_14748_8988.ebuf#branch               0
e.xmesh_buf_14028_8988.ebuf#branch               0
e.xmesh_buf_13308_8988.ebuf#branch               0
e.xmesh_buf_12588_8988.ebuf#branch               0
e.xmesh_buf_11868_8988.ebuf#branch               0
e.xmesh_buf_11148_8988.ebuf#branch               0
e.xmesh_buf_10428_8988.ebuf#branch               0
e.xmesh_buf_9708_8988.ebuf#branch               0
e.xmesh_buf_8988_8988.ebuf#branch               0
e.xmesh_buf_8268_8988.ebuf#branch               0
e.xmesh_buf_7548_8988.ebuf#branch               0
e.xmesh_buf_6828_8988.ebuf#branch               0
e.xmesh_buf_6108_8988.ebuf#branch               0
e.xmesh_buf_5388_8988.ebuf#branch               0
e.xmesh_buf_4668_8988.ebuf#branch               0
e.xmesh_buf_3948_8988.ebuf#branch               0
e.xmesh_buf_3228_8988.ebuf#branch               0
e.xmesh_buf_2508_8988.ebuf#branch               0
e.xmesh_buf_1788_8988.ebuf#branch               0
e.xmesh_buf_1068_8988.ebuf#branch               0
e.xmesh_buf_14748_8268.ebuf#branch               0
e.xmesh_buf_14028_8268.ebuf#branch               0
e.xmesh_buf_13308_8268.ebuf#branch               0
e.xmesh_buf_12588_8268.ebuf#branch               0
e.xmesh_buf_11868_8268.ebuf#branch               0
e.xmesh_buf_11148_8268.ebuf#branch               0
e.xmesh_buf_10428_8268.ebuf#branch               0
e.xmesh_buf_9708_8268.ebuf#branch               0
e.xmesh_buf_8988_8268.ebuf#branch               0
e.xmesh_buf_8268_8268.ebuf#branch               0
e.xmesh_buf_7548_8268.ebuf#branch               0
e.xmesh_buf_6828_8268.ebuf#branch               0
e.xmesh_buf_6108_8268.ebuf#branch               0
e.xmesh_buf_5388_8268.ebuf#branch               0
e.xmesh_buf_4668_8268.ebuf#branch               0
e.xmesh_buf_3948_8268.ebuf#branch               0
e.xmesh_buf_3228_8268.ebuf#branch               0
e.xmesh_buf_2508_8268.ebuf#branch               0
e.xmesh_buf_1788_8268.ebuf#branch               0
e.xmesh_buf_1068_8268.ebuf#branch               0
e.xmesh_buf_14748_7548.ebuf#branch               0
e.xmesh_buf_14028_7548.ebuf#branch               0
e.xmesh_buf_13308_7548.ebuf#branch               0
e.xmesh_buf_12588_7548.ebuf#branch               0
e.xmesh_buf_11868_7548.ebuf#branch               0
e.xmesh_buf_11148_7548.ebuf#branch               0
e.xmesh_buf_10428_7548.ebuf#branch               0
e.xmesh_buf_9708_7548.ebuf#branch               0
e.xmesh_buf_8988_7548.ebuf#branch               0
e.xmesh_buf_8268_7548.ebuf#branch               0
e.xmesh_buf_7548_7548.ebuf#branch               0
e.xmesh_buf_6828_7548.ebuf#branch               0
e.xmesh_buf_6108_7548.ebuf#branch               0
e.xmesh_buf_5388_7548.ebuf#branch               0
e.xmesh_buf_4668_7548.ebuf#branch               0
e.xmesh_buf_3948_7548.ebuf#branch               0
e.xmesh_buf_3228_7548.ebuf#branch               0
e.xmesh_buf_2508_7548.ebuf#branch               0
e.xmesh_buf_1788_7548.ebuf#branch               0
e.xmesh_buf_1068_7548.ebuf#branch               0
e.xmesh_buf_14748_6828.ebuf#branch               0
e.xmesh_buf_14028_6828.ebuf#branch               0
e.xmesh_buf_13308_6828.ebuf#branch               0
e.xmesh_buf_12588_6828.ebuf#branch               0
e.xmesh_buf_11868_6828.ebuf#branch               0
e.xmesh_buf_11148_6828.ebuf#branch               0
e.xmesh_buf_10428_6828.ebuf#branch               0
e.xmesh_buf_9708_6828.ebuf#branch               0
e.xmesh_buf_8988_6828.ebuf#branch               0
e.xmesh_buf_8268_6828.ebuf#branch               0
e.xmesh_buf_7548_6828.ebuf#branch               0
e.xmesh_buf_6828_6828.ebuf#branch               0
e.xmesh_buf_6108_6828.ebuf#branch               0
e.xmesh_buf_5388_6828.ebuf#branch               0
e.xmesh_buf_4668_6828.ebuf#branch               0
e.xmesh_buf_3948_6828.ebuf#branch               0
e.xmesh_buf_3228_6828.ebuf#branch               0
e.xmesh_buf_2508_6828.ebuf#branch               0
e.xmesh_buf_1788_6828.ebuf#branch               0
e.xmesh_buf_1068_6828.ebuf#branch               0
e.xmesh_buf_14748_6108.ebuf#branch               0
e.xmesh_buf_14028_6108.ebuf#branch               0
e.xmesh_buf_13308_6108.ebuf#branch               0
e.xmesh_buf_12588_6108.ebuf#branch               0
e.xmesh_buf_11868_6108.ebuf#branch               0
e.xmesh_buf_11148_6108.ebuf#branch               0
e.xmesh_buf_10428_6108.ebuf#branch               0
e.xmesh_buf_9708_6108.ebuf#branch               0
e.xmesh_buf_8988_6108.ebuf#branch               0
e.xmesh_buf_8268_6108.ebuf#branch               0
e.xmesh_buf_7548_6108.ebuf#branch               0
e.xmesh_buf_6828_6108.ebuf#branch               0
e.xmesh_buf_6108_6108.ebuf#branch               0
e.xmesh_buf_5388_6108.ebuf#branch               0
e.xmesh_buf_4668_6108.ebuf#branch               0
e.xmesh_buf_3948_6108.ebuf#branch               0
e.xmesh_buf_3228_6108.ebuf#branch               0
e.xmesh_buf_2508_6108.ebuf#branch               0
e.xmesh_buf_1788_6108.ebuf#branch               0
e.xmesh_buf_1068_6108.ebuf#branch               0
e.xmesh_buf_14748_5388.ebuf#branch               0
e.xmesh_buf_14028_5388.ebuf#branch               0
e.xmesh_buf_13308_5388.ebuf#branch               0
e.xmesh_buf_12588_5388.ebuf#branch               0
e.xmesh_buf_11868_5388.ebuf#branch               0
e.xmesh_buf_11148_5388.ebuf#branch               0
e.xmesh_buf_10428_5388.ebuf#branch               0
e.xmesh_buf_9708_5388.ebuf#branch               0
e.xmesh_buf_8988_5388.ebuf#branch               0
e.xmesh_buf_8268_5388.ebuf#branch               0
e.xmesh_buf_7548_5388.ebuf#branch               0
e.xmesh_buf_6828_5388.ebuf#branch               0
e.xmesh_buf_6108_5388.ebuf#branch               0
e.xmesh_buf_5388_5388.ebuf#branch               0
e.xmesh_buf_4668_5388.ebuf#branch               0
e.xmesh_buf_3948_5388.ebuf#branch               0
e.xmesh_buf_3228_5388.ebuf#branch               0
e.xmesh_buf_2508_5388.ebuf#branch               0
e.xmesh_buf_1788_5388.ebuf#branch               0
e.xmesh_buf_1068_5388.ebuf#branch               0
e.xmesh_buf_14748_4668.ebuf#branch               0
e.xmesh_buf_14028_4668.ebuf#branch               0
e.xmesh_buf_13308_4668.ebuf#branch               0
e.xmesh_buf_12588_4668.ebuf#branch               0
e.xmesh_buf_11868_4668.ebuf#branch               0
e.xmesh_buf_11148_4668.ebuf#branch               0
e.xmesh_buf_10428_4668.ebuf#branch               0
e.xmesh_buf_9708_4668.ebuf#branch               0
e.xmesh_buf_8988_4668.ebuf#branch               0
e.xmesh_buf_8268_4668.ebuf#branch               0
e.xmesh_buf_7548_4668.ebuf#branch               0
e.xmesh_buf_6828_4668.ebuf#branch               0
e.xmesh_buf_6108_4668.ebuf#branch               0
e.xmesh_buf_5388_4668.ebuf#branch               0
e.xmesh_buf_4668_4668.ebuf#branch               0
e.xmesh_buf_3948_4668.ebuf#branch               0
e.xmesh_buf_3228_4668.ebuf#branch               0
e.xmesh_buf_2508_4668.ebuf#branch               0
e.xmesh_buf_1788_4668.ebuf#branch               0
e.xmesh_buf_1068_4668.ebuf#branch               0
e.xmesh_buf_14748_3948.ebuf#branch               0
e.xmesh_buf_14028_3948.ebuf#branch               0
e.xmesh_buf_13308_3948.ebuf#branch               0
e.xmesh_buf_12588_3948.ebuf#branch               0
e.xmesh_buf_11868_3948.ebuf#branch               0
e.xmesh_buf_11148_3948.ebuf#branch               0
e.xmesh_buf_10428_3948.ebuf#branch               0
e.xmesh_buf_9708_3948.ebuf#branch               0
e.xmesh_buf_8988_3948.ebuf#branch               0
e.xmesh_buf_8268_3948.ebuf#branch               0
e.xmesh_buf_7548_3948.ebuf#branch               0
e.xmesh_buf_6828_3948.ebuf#branch               0
e.xmesh_buf_6108_3948.ebuf#branch               0
e.xmesh_buf_5388_3948.ebuf#branch               0
e.xmesh_buf_4668_3948.ebuf#branch               0
e.xmesh_buf_3948_3948.ebuf#branch               0
e.xmesh_buf_3228_3948.ebuf#branch               0
e.xmesh_buf_2508_3948.ebuf#branch               0
e.xmesh_buf_1788_3948.ebuf#branch               0
e.xmesh_buf_1068_3948.ebuf#branch               0
e.xmesh_buf_14748_3228.ebuf#branch               0
e.xmesh_buf_14028_3228.ebuf#branch               0
e.xmesh_buf_13308_3228.ebuf#branch               0
e.xmesh_buf_12588_3228.ebuf#branch               0
e.xmesh_buf_11868_3228.ebuf#branch               0
e.xmesh_buf_11148_3228.ebuf#branch               0
e.xmesh_buf_10428_3228.ebuf#branch               0
e.xmesh_buf_9708_3228.ebuf#branch               0
e.xmesh_buf_8988_3228.ebuf#branch               0
e.xmesh_buf_8268_3228.ebuf#branch               0
e.xmesh_buf_7548_3228.ebuf#branch               0
e.xmesh_buf_6828_3228.ebuf#branch               0
e.xmesh_buf_6108_3228.ebuf#branch               0
e.xmesh_buf_5388_3228.ebuf#branch               0
e.xmesh_buf_4668_3228.ebuf#branch               0
e.xmesh_buf_3948_3228.ebuf#branch               0
e.xmesh_buf_3228_3228.ebuf#branch               0
e.xmesh_buf_2508_3228.ebuf#branch               0
e.xmesh_buf_1788_3228.ebuf#branch               0
e.xmesh_buf_1068_3228.ebuf#branch               0
e.xmesh_buf_14748_2508.ebuf#branch               0
e.xmesh_buf_14028_2508.ebuf#branch               0
e.xmesh_buf_13308_2508.ebuf#branch               0
e.xmesh_buf_12588_2508.ebuf#branch               0
e.xmesh_buf_11868_2508.ebuf#branch               0
e.xmesh_buf_11148_2508.ebuf#branch               0
e.xmesh_buf_10428_2508.ebuf#branch               0
e.xmesh_buf_9708_2508.ebuf#branch               0
e.xmesh_buf_8988_2508.ebuf#branch               0
e.xmesh_buf_8268_2508.ebuf#branch               0
e.xmesh_buf_7548_2508.ebuf#branch               0
e.xmesh_buf_6828_2508.ebuf#branch               0
e.xmesh_buf_6108_2508.ebuf#branch               0
e.xmesh_buf_5388_2508.ebuf#branch               0
e.xmesh_buf_4668_2508.ebuf#branch               0
e.xmesh_buf_3948_2508.ebuf#branch               0
e.xmesh_buf_3228_2508.ebuf#branch               0
e.xmesh_buf_2508_2508.ebuf#branch               0
e.xmesh_buf_1788_2508.ebuf#branch               0
e.xmesh_buf_1068_2508.ebuf#branch               0
e.xmesh_buf_14748_1788.ebuf#branch               0
e.xmesh_buf_14028_1788.ebuf#branch               0
e.xmesh_buf_13308_1788.ebuf#branch               0
e.xmesh_buf_12588_1788.ebuf#branch               0
e.xmesh_buf_11868_1788.ebuf#branch               0
e.xmesh_buf_11148_1788.ebuf#branch               0
e.xmesh_buf_10428_1788.ebuf#branch               0
e.xmesh_buf_9708_1788.ebuf#branch               0
e.xmesh_buf_8988_1788.ebuf#branch               0
e.xmesh_buf_8268_1788.ebuf#branch               0
e.xmesh_buf_7548_1788.ebuf#branch               0
e.xmesh_buf_6828_1788.ebuf#branch               0
e.xmesh_buf_6108_1788.ebuf#branch               0
e.xmesh_buf_5388_1788.ebuf#branch               0
e.xmesh_buf_4668_1788.ebuf#branch               0
e.xmesh_buf_3948_1788.ebuf#branch               0
e.xmesh_buf_3228_1788.ebuf#branch               0
e.xmesh_buf_2508_1788.ebuf#branch               0
e.xmesh_buf_1788_1788.ebuf#branch               0
e.xmesh_buf_1068_1788.ebuf#branch               0
e.xmesh_buf_14748_1068.ebuf#branch               0
e.xmesh_buf_14028_1068.ebuf#branch               0
e.xmesh_buf_13308_1068.ebuf#branch               0
e.xmesh_buf_12588_1068.ebuf#branch               0
e.xmesh_buf_11868_1068.ebuf#branch               0
e.xmesh_buf_11148_1068.ebuf#branch               0
e.xmesh_buf_10428_1068.ebuf#branch               0
e.xmesh_buf_9708_1068.ebuf#branch               0
e.xmesh_buf_8988_1068.ebuf#branch               0
e.xmesh_buf_8268_1068.ebuf#branch               0
e.xmesh_buf_7548_1068.ebuf#branch               0
e.xmesh_buf_6828_1068.ebuf#branch               0
e.xmesh_buf_6108_1068.ebuf#branch               0
e.xmesh_buf_5388_1068.ebuf#branch               0
e.xmesh_buf_4668_1068.ebuf#branch               0
e.xmesh_buf_3948_1068.ebuf#branch               0
e.xmesh_buf_3228_1068.ebuf#branch               0
e.xmesh_buf_2508_1068.ebuf#branch               0
e.xmesh_buf_1788_1068.ebuf#branch               0
e.xmesh_buf_1068_1068.ebuf#branch               0
vclk_99#branch                               0
vclk_98#branch                               0
vclk_97#branch                               0
vclk_96#branch                               0
vclk_95#branch                               0
vclk_94#branch                               0
vclk_93#branch                               0
vclk_92#branch                               0
vclk_91#branch                               0
vclk_90#branch                               0
vclk_89#branch                               0
vclk_88#branch                               0
vclk_87#branch                               0
vclk_86#branch                               0
vclk_85#branch                               0
vclk_84#branch                               0
vclk_83#branch                               0
vclk_82#branch                               0
vclk_81#branch                               0
vclk_80#branch                               0
vclk_79#branch                               0
vclk_78#branch                               0
vclk_77#branch                               0
vclk_76#branch                               0
vclk_75#branch                               0
vclk_74#branch                               0
vclk_73#branch                               0
vclk_72#branch                               0
vclk_71#branch                               0
vclk_70#branch                               0
vclk_69#branch                               0
vclk_68#branch                               0
vclk_67#branch                               0
vclk_66#branch                               0
vclk_65#branch                               0
vclk_64#branch                               0
vclk_63#branch                               0
vclk_62#branch                               0
vclk_61#branch                               0
vclk_60#branch                               0
vclk_59#branch                               0
vclk_58#branch                               0
vclk_57#branch                               0
vclk_56#branch                               0
vclk_55#branch                               0
vclk_54#branch                               0
vclk_53#branch                               0
vclk_52#branch                               0
vclk_51#branch                               0
vclk_50#branch                               0
vclk_49#branch                               0
vclk_48#branch                               0
vclk_47#branch                               0
vclk_46#branch                               0
vclk_45#branch                               0
vclk_44#branch                               0
vclk_43#branch                               0
vclk_42#branch                               0
vclk_41#branch                               0
vclk_40#branch                               0
vclk_39#branch                               0
vclk_38#branch                               0
vclk_37#branch                               0
vclk_36#branch                               0
vclk_35#branch                               0
vclk_34#branch                               0
vclk_33#branch                               0
vclk_32#branch                               0
vclk_31#branch                               0
vclk_30#branch                               0
vclk_29#branch                               0
vclk_28#branch                               0
vclk_27#branch                               0
vclk_26#branch                               0
vclk_25#branch                               0
vclk_24#branch                               0
vclk_23#branch                               0
vclk_22#branch                               0
vclk_21#branch                               0
vclk_20#branch                               0
vclk_19#branch                               0
vclk_18#branch                               0
vclk_17#branch                               0
vclk_16#branch                               0
vclk_15#branch                               0
vclk_14#branch                               0
vclk_13#branch                               0
vclk_12#branch                               0
vclk_11#branch                               0
vclk_10#branch                               0
vclk_9#branch                                0
vclk_8#branch                                0
vclk_7#branch                                0
vclk_6#branch                                0
vclk_5#branch                                0
vclk_4#branch                                0
vclk_3#branch                                0
vclk_2#branch                                0
vclk_1#branch                                0
vclk_0#branch                                0
vvdd#branch                             -7e-13

 Reference value :  9.25066e-11 Reference value :  2.08447e-10 Reference value :  3.31207e-10 Reference value :  4.53967e-10 Reference value :  5.75487e-10 Reference value :  7.01037e-10 Reference value :  8.23487e-10
No. of Data Rows : 3044

  Measurements for Transient Analysis

t_sink_0            =   8.74059e-11
t_sink_1            =   8.74065e-11
t_sink_2            =   8.74081e-11
t_sink_3            =   8.74048e-11
t_sink_4            =   8.73995e-11
t_sink_5            =   8.74002e-11
t_sink_6            =   8.74059e-11
t_sink_7            =   8.74138e-11
t_sink_8            =   8.74535e-11
t_sink_9            =   8.73995e-11
t_sink_10           =   8.74107e-11
t_sink_11           =   8.74141e-11
t_sink_12           =   8.74504e-11
t_sink_13           =   8.74566e-11
t_sink_14           =   8.74627e-11
t_sink_15           =   8.74607e-11
t_sink_16           =   8.74524e-11
t_sink_17           =   8.73989e-11
t_sink_18           =   8.74129e-11
t_sink_19           =   8.74212e-11
t_sink_20           =   8.73994e-11
t_sink_21           =   8.73986e-11
t_sink_22           =   8.74006e-11
t_sink_23           =   8.74083e-11
t_sink_24           =   8.74436e-11
t_sink_25           =   8.75286e-11
t_sink_26           =   8.74055e-11
t_sink_27           =   8.74132e-11
t_sink_28           =   8.74239e-11
t_sink_29           =   8.74549e-11
t_sink_30           =   8.73975e-11
t_sink_31           =   8.74610e-11
t_sink_32           =   8.74501e-11
t_sink_33           =   8.74395e-11
t_sink_34           =   8.74127e-11


Total analysis time (seconds) = 1.9294

Total elapsed time (seconds) = 1.964 

Total DRAM available = 15676.215 MB.
DRAM currently available = 1772.656 MB.
Maximum ngspice program size =   33.199 MB.
Current ngspice program size =   21.504 MB.

Shared ngspice pages =   10.484 MB.
Text (code) pages =    6.363 MB.
Stack = 0 bytes.
Library pages =   11.066 MB.

